<?xml version="1.0" encoding="UTF-8"?>

<!-- generated on 2023-12-07 19:57:40 by Eclipse SUMO netedit Version 1.19.0
-->

<routes xmlns:xsi="http://www.w3.org/2001/XMLSchema-instance" xsi:noNamespaceSchemaLocation="http://sumo.dlr.de/xsd/routes_file.xsd">
    <!-- Vehicles, persons and containers (sorted by depart) -->
    <!-- <trip id="t_0" depart="0.00" from="E6" to="E8" via="E7"/>
    <trip id="t_1" depart="0.00" from="E6" to="E8" via="E9 E10 E11"/> -->

    <route id="r_0" edges="E6 E7 E8"/>
    <route id="r_1" edges="E6 E9 E10 E11 E8"/>

    <flow id="flow1" begin="0" end="100" number="7" route="r_0" type="DEFAULT_VEHTYPE" color="1,1,0"/>
    <flow id="flow2" begin="0" end="100" number="7" route="r_0" type="DEFAULT_VEHTYPE" color="0,1,0" arrivalLane="1" departLane="1"/>
</routes>
