<?xml version="1.0" encoding="UTF-8"?>

<!-- generated on 2023-12-04 17:28:12 by Eclipse SUMO netedit Version 1.19.0
<configuration xmlns:xsi="http://www.w3.org/2001/XMLSchema-instance" xsi:noNamespaceSchemaLocation="http://sumo.dlr.de/xsd/neteditConfiguration.xsd">

    <input>
        <sumocfg-file value="/Users/mukeshjavvaji/Documents/Academics/FAI/Project/V2VSimulationsUsingSumo/demo.sumocfg"/>
        <route-files value="/Users/mukeshjavvaji/Documents/Academics/FAI/Project/V2VSimulationsUsingSumo/demo.rou.xml"/>
        <sumo-net-file value="/Users/mukeshjavvaji/Documents/Academics/FAI/Project/V2VSimulationsUsingSumo/demo.net.xml"/>
    </input>

    <output>
        <output-file value="/Users/mukeshjavvaji/Documents/Academics/FAI/Project/V2VSimulationsUsingSumo/demo.net.xml"/>
    </output>

    <processing>
        <offset.disable-normalization value="true"/>
    </processing>

    <junctions>
        <no-turnarounds value="true"/>
    </junctions>

    <netedit>
        <new-network value="false"/>
    </netedit>

</configuration>
-->

<net version="1.16" junctionCornerDetail="5" limitTurnSpeed="5.50" xmlns:xsi="http://www.w3.org/2001/XMLSchema-instance" xsi:noNamespaceSchemaLocation="http://sumo.dlr.de/xsd/net_file.xsd">

    <location netOffset="0.00,0.00" convBoundary="-69.00,17.28,74.35,59.43" origBoundary="10000000000.00,10000000000.00,-10000000000.00,-10000000000.00" projParameter="!"/>

    <edge id=":J11_0" function="internal">
        <lane id=":J11_0_0" index="0" speed="6.08" length="7.80" shape="-32.87,17.33 -32.59,15.21 -31.70,13.69 -30.19,12.78 -28.07,12.48"/>
        <lane id=":J11_0_1" index="1" speed="3.90" length="2.60" shape="-29.67,17.30 -29.57,16.59 -29.28,16.08 -28.77,15.78 -28.07,15.68"/>
    </edge>
    <edge id=":J12_0" function="internal">
        <lane id=":J12_0_0" index="0" speed="6.08" length="7.80" shape="25.71,12.48 27.83,12.78 29.33,13.69 30.23,15.21 30.51,17.33"/>
        <lane id=":J12_0_1" index="1" speed="3.90" length="2.60" shape="25.71,15.68 26.41,15.78 26.92,16.08 27.21,16.59 27.31,17.30"/>
    </edge>
    <edge id=":J8_0" function="internal">
        <lane id=":J8_0_0" index="0" speed="6.51" length="9.03" shape="-38.30,54.17 -35.86,53.82 -34.11,52.77 -33.05,51.02 -32.70,48.57"/>
        <lane id=":J8_0_1" index="1" speed="7.33" length="11.72" shape="-38.30,54.17 -34.46,53.82 -31.71,52.77 -30.05,51.02 -29.50,48.58"/>
    </edge>
    <edge id=":J8_2" function="internal">
        <lane id=":J8_2_0" index="0" speed="13.89" length="14.36" shape="-38.30,54.17 -23.93,54.21"/>
        <lane id=":J8_2_1" index="1" speed="13.89" length="14.36" shape="-38.30,57.37 -23.95,57.41"/>
    </edge>
    <edge id=":J9_0" function="internal">
        <lane id=":J9_0_0" index="0" speed="6.48" length="9.03" shape="30.17,49.01 30.49,51.47 31.53,53.22 33.27,54.28 35.72,54.63"/>
        <lane id=":J9_0_1" index="1" speed="7.98" length="14.23" shape="26.97,48.98 27.48,52.85 29.11,55.61 31.86,57.27 35.72,57.83"/>
    </edge>
    <edge id=":J9_2" function="internal">
        <lane id=":J9_2_0" index="0" speed="13.89" length="14.43" shape="21.31,54.59 35.72,54.63"/>
        <lane id=":J9_2_1" index="1" speed="13.89" length="14.43" shape="21.28,57.79 35.72,57.83"/>
    </edge>

    <edge id="E10" from="J8" to="J11" priority="-1" shape="-27.92,58.97 -27.88,34.18 -28.07,17.28">
        <lane id="E10_0" index="0" speed="13.89" length="31.26" shape="-32.70,48.57 -32.68,34.20 -32.87,17.33"/>
        <lane id="E10_1" index="1" speed="13.89" length="31.26" shape="-29.50,48.58 -29.48,34.19 -29.67,17.30"/>
    </edge>
    <edge id="E11" from="J11" to="J12" priority="-1" shape="-28.07,17.28 5.23,17.28 25.71,17.28">
        <lane id="E11_0" index="0" speed="13.89" length="53.78" shape="-28.07,12.48 5.23,12.48 25.71,12.48"/>
        <lane id="E11_1" index="1" speed="13.89" length="53.78" shape="-28.07,15.68 5.23,15.68 25.71,15.68"/>
    </edge>
    <edge id="E12" from="J12" to="J9" priority="-1" shape="25.71,17.28 25.56,31.28 25.26,59.43">
        <lane id="E12_0" index="0" speed="13.89" length="31.68" shape="30.51,17.33 30.36,31.33 30.17,49.01"/>
        <lane id="E12_1" index="1" speed="13.89" length="31.68" shape="27.31,17.30 27.16,31.30 26.97,48.98"/>
    </edge>
    <edge id="E7" from="J7" to="J8" priority="-1" shape="-69.00,58.97 -50.83,58.97 -27.92,58.97">
        <lane id="E7_0" index="0" speed="13.89" length="30.70" shape="-69.01,54.17 -50.83,54.17 -38.30,54.17"/>
        <lane id="E7_1" index="1" speed="13.89" length="30.70" shape="-69.00,57.37 -50.83,57.37 -38.30,57.37"/>
    </edge>
    <edge id="E8" from="J8" to="J9" priority="-1" shape="-27.92,58.97 -7.30,59.15 25.26,59.43">
        <lane id="E8_0" index="0" speed="13.89" length="45.24" shape="-23.93,54.21 -7.26,54.35 21.31,54.59"/>
        <lane id="E8_1" index="1" speed="13.89" length="45.24" shape="-23.95,57.41 -7.29,57.55 21.28,57.79"/>
    </edge>
    <edge id="E9" from="J9" to="J10" priority="-1" shape="25.26,59.43 45.43,59.43 74.35,59.43">
        <lane id="E9_0" index="0" speed="13.89" length="38.62" shape="35.72,54.63 45.43,54.63 74.35,54.63"/>
        <lane id="E9_1" index="1" speed="13.89" length="38.62" shape="35.72,57.83 45.43,57.83 74.35,57.83"/>
    </edge>

    <junction id="J10" type="dead_end" x="74.35" y="59.43" incLanes="E9_0 E9_1" intLanes="" shape="74.35,53.03 74.35,59.43"/>
    <junction id="J11" type="priority" x="-28.07" y="17.28" incLanes="E10_0 E10_1" intLanes=":J11_0_0 :J11_0_1" shape="-34.47,17.35 -28.07,17.28 -28.07,10.88 -31.66,11.60 -32.90,12.50 -33.79,13.76 -34.31,15.37">
        <request index="0" response="00" foes="00" cont="0"/>
        <request index="1" response="00" foes="00" cont="0"/>
    </junction>
    <junction id="J12" type="priority" x="25.71" y="17.28" incLanes="E11_0 E11_1" intLanes=":J12_0_0 :J12_0_1" shape="25.71,10.88 25.71,17.28 32.11,17.35 31.43,13.75 30.54,12.50 29.29,11.60 27.68,11.06">
        <request index="0" response="00" foes="00" cont="0"/>
        <request index="1" response="00" foes="00" cont="0"/>
    </junction>
    <junction id="J7" type="dead_end" x="-69.00" y="58.97" incLanes="" intLanes="" shape="-69.00,58.97 -69.01,52.57"/>
    <junction id="J8" type="priority" x="-27.92" y="58.97" incLanes="E7_0 E7_1" intLanes=":J8_0_0 :J8_0_1 :J8_2_0 :J8_2_1" shape="-23.97,59.01 -23.91,52.61 -26.13,52.14 -26.91,51.58 -27.46,50.80 -27.79,49.80 -27.90,48.58 -34.30,48.57 -34.75,50.79 -35.30,51.57 -36.08,52.13 -37.08,52.46 -38.30,52.57 -38.30,58.97">
        <request index="0" response="0000" foes="0000" cont="0"/>
        <request index="1" response="0000" foes="0000" cont="0"/>
        <request index="2" response="0000" foes="0000" cont="0"/>
        <request index="3" response="0000" foes="0000" cont="0"/>
    </junction>
    <junction id="J9" type="priority" x="25.26" y="59.43" incLanes="E12_0 E12_1 E8_0 E8_1" intLanes=":J9_0_0 :J9_0_1 :J9_2_0 :J9_2_1" shape="35.72,59.43 35.72,53.03 33.51,52.58 32.74,52.03 32.19,51.25 31.87,50.25 31.77,49.03 25.37,48.96 24.90,51.21 24.34,52.00 23.55,52.56 22.55,52.89 21.32,52.99 21.27,59.39">
        <request index="0" response="0000" foes="1100" cont="0"/>
        <request index="1" response="0000" foes="1100" cont="0"/>
        <request index="2" response="0011" foes="0011" cont="0"/>
        <request index="3" response="0011" foes="0011" cont="0"/>
    </junction>

    <connection from="E10" to="E11" fromLane="0" toLane="0" via=":J11_0_0" dir="l" state="M"/>
    <connection from="E10" to="E11" fromLane="1" toLane="1" via=":J11_0_1" dir="l" state="M"/>
    <connection from="E11" to="E12" fromLane="0" toLane="0" via=":J12_0_0" dir="l" state="M"/>
    <connection from="E11" to="E12" fromLane="1" toLane="1" via=":J12_0_1" dir="l" state="M"/>
    <connection from="E12" to="E9" fromLane="0" toLane="0" via=":J9_0_0" dir="r" state="M"/>
    <connection from="E12" to="E9" fromLane="1" toLane="1" via=":J9_0_1" dir="r" state="M"/>
    <connection from="E7" to="E10" fromLane="0" toLane="0" via=":J8_0_0" dir="r" state="M"/>
    <connection from="E7" to="E10" fromLane="0" toLane="1" via=":J8_0_1" dir="r" state="M"/>
    <connection from="E7" to="E8" fromLane="0" toLane="0" via=":J8_2_0" dir="s" state="M"/>
    <connection from="E7" to="E8" fromLane="1" toLane="1" via=":J8_2_1" dir="s" state="M"/>
    <connection from="E8" to="E9" fromLane="0" toLane="0" via=":J9_2_0" dir="s" state="m"/>
    <connection from="E8" to="E9" fromLane="1" toLane="1" via=":J9_2_1" dir="s" state="m"/>

    <connection from=":J11_0" to="E11" fromLane="0" toLane="0" dir="l" state="M"/>
    <connection from=":J11_0" to="E11" fromLane="1" toLane="1" dir="l" state="M"/>
    <connection from=":J12_0" to="E12" fromLane="0" toLane="0" dir="l" state="M"/>
    <connection from=":J12_0" to="E12" fromLane="1" toLane="1" dir="l" state="M"/>
    <connection from=":J8_0" to="E10" fromLane="0" toLane="0" dir="r" state="M"/>
    <connection from=":J8_0" to="E10" fromLane="1" toLane="1" dir="r" state="M"/>
    <connection from=":J8_2" to="E8" fromLane="0" toLane="0" dir="s" state="M"/>
    <connection from=":J8_2" to="E8" fromLane="1" toLane="1" dir="s" state="M"/>
    <connection from=":J9_0" to="E9" fromLane="0" toLane="0" dir="r" state="M"/>
    <connection from=":J9_0" to="E9" fromLane="1" toLane="1" dir="r" state="M"/>
    <connection from=":J9_2" to="E9" fromLane="0" toLane="0" dir="s" state="M"/>
    <connection from=":J9_2" to="E9" fromLane="1" toLane="1" dir="s" state="M"/>

</net>
