<?xml version="1.0" encoding="UTF-8"?>

<!-- generated on 2023-12-02 23:12:04 by Eclipse SUMO GUI Version 1.19.0
-->

<configuration xmlns:xsi="http://www.w3.org/2001/XMLSchema-instance" xsi:noNamespaceSchemaLocation="http://sumo.dlr.de/xsd/sumoConfiguration.xsd">

    <input>
        <net-file value="helloFai.net.xml"/>
        <route-files value="test.rou.xml"/>
    </input>

</configuration>
